Circuit: * C:\Users\IndrekKeskküla\Krakul OÜ\DefSecIntel - Documents\KR-Df-01 (Fuse board)\Electronics Development\Voltage measurement\ISO61000-4-2.asc

Direct Newton iteration for .op point succeeded.

Date: Fri Jan 19 15:24:38 2024
Total elapsed time: 0.110 seconds.

tnom = 27
temp = 27
method = modified trap
totiter = 2423
traniter = 2412
tranpoints = 1197
accept = 1174
rejected = 23
matrix size = 11
fillins = 0
solver = Normal
Matrix Compiler1: 432 bytes object code size  0.1/0.1/[0.1]
Matrix Compiler2: off  [0.1]/0.1/0.1

