Circuit: * C:\Users\IndrekKeskküla\Krakul OÜ\DefSecIntel - Documents\KR-Df-01 (Fuse board)\Electronics Development\Buttons and LED-s\Level translator.asc

Direct Newton iteration for .op point succeeded.

Date: Thu Jan 11 15:52:58 2024
Total elapsed time: 0.192 seconds.

tnom = 27
temp = 27
method = modified trap
totiter = 6311
traniter = 6304
tranpoints = 1939
accept = 1709
rejected = 230
matrix size = 13
fillins = 0
solver = Normal
Matrix Compiler1: 638 bytes object code size  0.5/0.2/[0.1]
Matrix Compiler2: off  [0.2]/0.3/0.2

